logs/PSO_red_4Nodos/aleatorio4_3.log
Iniciando PSO Híbrido con modo Cod_Tramos

Iniciando PSO híbrido

=========== Iteración 1 ==============
Tiempo transcurrido: 0.0 segundos

Actualizando partícula 1
fitValue: Inf

Actualizando partícula 2
fitValue: Inf

Actualizando partícula 3
fitValue: Inf

Actualizando partícula 4
fitValue: Inf

Actualizando partícula 5
fitValue: Inf

Mejor fitness actual: Inf
Iteraciones sin mejora: 1

=========== Iteración 2 ==============
Tiempo transcurrido: 0.06 segundos

Actualizando partícula 1
fitValue: Inf

Actualizando partícula 2
fitValue: Inf

Actualizando partícula 3
fitValue: Inf

Actualizando partícula 4
fitValue: Inf

Actualizando partícula 5
fitValue: Inf

Mejor fitness actual: Inf
Iteraciones sin mejora: 2

=========== Iteración 3 ==============
Tiempo transcurrido: 0.06 segundos

Actualizando partícula 1
fitValue: Inf

Actualizando partícula 2
fitValue: Inf

Actualizando partícula 3
fitValue: Inf

Actualizando partícula 4
fitValue: Inf

Actualizando partícula 5

Comprobación de potencias generadas y demandadas:
Pd: [0.7, 0.58, 0.59, 0.57]
Qd: [0.49, 0.3, 0.27, 0.36]
Pgen: [0.0, 1.0, 1.0]
Qgen: [0.0, 0.5, 0.5]

Potencias activas inyectadas reales:
Piny: [-0.7, 0.42000000000000004, 0.41000000000000003, -0.57]

Potencias reactivas inyectadas:
Qiny: [-0.49, 0.2, 0.22999999999999998, -0.36]

====Iteración Newton-Raphson: 1 ====


Potencias inyectadas calculadas con las tensiones actuales:
U: ComplexF64[1.0 + 0.0im, 1.0 + 0.0im, 1.0 + 0.0im, 1.0 + 0.0im]
Piny_new: [0.0, -6.217248937900877e-15, -8.881784197001252e-16, -1.7763568394002505e-15]
Qiny_new: [0.0, -1.7763568394002505e-15, 0.0, 0.0]

Desbalances de potencias:
ΔPiny: [0.0, 0.42000000000000626, 0.4100000000000009, -0.5699999999999982]
ΔQiny: [0.0, 0.2000000000000018, 0.22999999999999998, -0.36]

Desbalances de ángulos y tensiones (vector columna):
Δθ: [-0.0103, 0.0353, -0.0311]
ΔV: [-0.0184, 0.0308, -0.0543]

Tensiones actualizadas (módulos y ángulos):

====Iteración Newton-Raphson: 2 ====


Potencias inyectadas calculadas con las tensiones actuales:
U: ComplexF64[1.0 + 0.0im, 0.9815698340913951 - 0.010155797037485476im, 1.0301151562541002 + 0.036397238211015495im, 0.9452775582814397 - 0.029420414854094003im]
Piny_new: [0.0, 0.39797455538279874, 0.4238515140902081, -0.5323400218032392]
Qiny_new: [0.0, 0.2080996732066157, 0.24340672395143603, -0.3403174649924424]

Desbalances de potencias:
ΔPiny: [0.0, 0.022025444617201295, -0.013851514090208072, -0.0376599781967607]
ΔQiny: [0.0, -0.008099673206615698, -0.01340672395143605, -0.019682535007557567]

Desbalances de ángulos y tensiones (vector columna):
Δθ: [-0.001, -0.001, -0.0028]
ΔV: [-0.0035, -0.0015, -0.006]

Tensiones actualizadas (módulos y ángulos):

====Iteración Newton-Raphson: 3 ====


Potencias inyectadas calculadas con las tensiones actuales:
U: ComplexF64[1.0 + 0.0im, 0.9780941120252266 - 0.011069512870447808im, 1.028690054221843 + 0.035319920167651085im, 0.9391966796858178 - 0.03184531679125199im]
Piny_new: [0.0, 0.4197748228070383, 0.4100196610807854, -0.5696439506144102]
Qiny_new: [0.0, 0.20012953276072876, 0.2300235846927592, -0.3598862813511701]

Desbalances de potencias:
ΔPiny: [0.0, 0.000225177192961723, -1.9661080785382534e-5, -0.00035604938558975174]
ΔQiny: [0.0, -0.00012953276072874553, -2.3584692759204273e-5, -0.0001137186488298636]

Desbalances de ángulos y tensiones (vector columna):
Δθ: [-0.0, -0.0, -0.0]
ΔV: [-0.0, -0.0, -0.0001]

Tensiones actualizadas (módulos y ángulos):

====Iteración Newton-Raphson: 4 ====


Potencias inyectadas calculadas con las tensiones actuales:
U: ComplexF64[1.0 + 0.0im, 0.9780633984161563 - 0.011077028585921607im, 1.0286875973030574 + 0.03531848145541825im, 0.9391453193458946 - 0.031869459426047464im]
Piny_new: [0.0, 0.4199999798526887, 0.41000000004693693, -0.5699999698612858]
Qiny_new: [0.0, 0.20000001367665785, 0.23000000006483512, -0.3599999947801436]

Desbalances de potencias:
ΔPiny: [0.0, 2.0147311319274053e-8, -4.693689881207774e-11, -3.013871419099701e-8]
ΔQiny: [0.0, -1.3676657834027495e-8, -6.483513725896728e-11, -5.2198563804672915e-9]

¡Convergencia alcanzada!

****Resultados finales****

1. Tensiones finales:
Nodo 1: V = 1.0∠0.0°
Nodo 2: V = 0.9781∠-0.6474°
Nodo 3: V = 1.0293∠1.9652°
Nodo 4: V = 0.9397∠-1.9423°

2. Potencias generadas por el slack:
Pgen_slack: 0.46043001003083917 p.u.
Qgen_slack: 0.47448189067283564 p.u.

3. Pérdidas totales:
P_totales: 0.02043001003083933 p.u.
Q_totales: 0.5842046746615626 p.u.

Violaciones de tensión: Inf

Tensiones de la línea 1-2:

Corrientes de la línea 1-2:
I_1 = 0.2556∠-49.4316°
I_2 = 0.2556∠130.5684°

Potencias aparentes de la línea 1-2:
S_1 = 0.1662327139017239 + 0.1941633950310031im
S_2 = -0.1647368985756636 - 0.1880615916739918im

Violación de flujo en la línea 1-2: 0.0

Tensiones de la línea 1-3:

Corrientes de la línea 1-3:
I_1 = 0.4568∠152.6739°
I_3 = 0.4568∠-27.3261°

Potencias aparentes de la línea 1-3:
S_1 = -0.40578411600673503 - 0.20967504145707316im
S_3 = 0.4100203398307045 + 0.2300229133738345im

Violación de flujo en la línea 1-3: 0.0

Tensiones de la línea 2-4:

Corrientes de la línea 2-4:
I_2 = 9.8856∠124.7352°
I_4 = 6.2451∠130.3233°

Potencias aparentes de la línea 2-4:
S_2 = -5.548805174429288 - 7.450052357494081im
S_4 = -4.005276637376627 - 4.612031385817447im

Violación de flujo en la línea 2-4: 0.0

Pérdidas totales:
P_totales = -9.548349772655886
Q_totales = -12.035634068037757

Información de Generadores:
----------------------------

Generador 1:
Estado u: 0.6347
P inicial: 46.043 MW
Q inicial: 47.4482 MVAr
Límites P: [0, 101] MW
Límites Q: [-49, 50] MVAr
P ajustada: 46.043 MW
Q ajustada: 47.4482 MVAr
Estado: Encendido

Generador 2:
Estado u: 0.9071
P inicial: 100.0 MW
Q inicial: 50.0 MVAr
Límites P: [0, 100] MW
Límites Q: [-48, 50] MVAr
P ajustada: 100.0 MW
Q ajustada: 50.0 MVAr
Estado: Encendido

Generador 3:
Estado u: 1.0
P inicial: 100.0 MW
Q inicial: 50.0 MVAr
Límites P: [0, 100] MW
Límites Q: [-50, 50] MVAr
P ajustada: 100.0 MW
Q ajustada: 50.0 MVAr
Estado: Encendido
fitValue: Inf

Mejor fitness actual: Inf
Iteraciones sin mejora: 3

=========== Iteración 4 ==============
Tiempo transcurrido: 0.12 segundos

Actualizando partícula 1
fitValue: Inf

Actualizando partícula 2
fitValue: Inf

Actualizando partícula 3
fitValue: Inf

Actualizando partícula 4
fitValue: Inf

Actualizando partícula 5
fitValue: Inf

Mejor fitness actual: Inf
Iteraciones sin mejora: 4

=========== Iteración 5 ==============
Tiempo transcurrido: 0.12 segundos

Actualizando partícula 1
fitValue: Inf

Actualizando partícula 2
fitValue: Inf

Actualizando partícula 3
fitValue: Inf

Actualizando partícula 4
fitValue: Inf

Actualizando partícula 5
fitValue: Inf

Mejor fitness actual: Inf
Iteraciones sin mejora: 5

=========== Iteración 6 ==============
Tiempo transcurrido: 0.12 segundos

Actualizando partícula 1
fitValue: Inf

Actualizando partícula 2
fitValue: Inf

Actualizando partícula 3
fitValue: Inf

Actualizando partícula 4
fitValue: Inf

Actualizando partícula 5
fitValue: Inf

Mejor fitness actual: Inf
Iteraciones sin mejora: 6

=========== Iteración 7 ==============
Tiempo transcurrido: 0.12 segundos

Actualizando partícula 1
fitValue: Inf

Actualizando partícula 2
fitValue: Inf

Actualizando partícula 3
fitValue: Inf

Actualizando partícula 4
fitValue: Inf

Actualizando partícula 5

Comprobación de potencias generadas y demandadas:
Pd: [0.7, 0.58, 0.59, 0.57]
Qd: [0.49, 0.3, 0.27, 0.36]
Pgen: [0.0, 0.9952862791362281, 1.0]
Qgen: [0.0, 0.4953805535535035, 0.5]

Potencias activas inyectadas reales:
Piny: [-0.7, 0.4152862791362282, 0.41000000000000003, -0.57]

Potencias reactivas inyectadas:
Qiny: [-0.49, 0.19538055355350353, 0.22999999999999998, -0.36]

====Iteración Newton-Raphson: 1 ====


Potencias inyectadas calculadas con las tensiones actuales:
U: ComplexF64[1.0 + 0.0im, 1.0 + 0.0im, 1.0 + 0.0im, 1.0 + 0.0im]
Piny_new: [0.0, -6.217248937900877e-15, -8.881784197001252e-16, -1.7763568394002505e-15]
Qiny_new: [0.0, -1.7763568394002505e-15, 0.0, 0.0]

Desbalances de potencias:
ΔPiny: [0.0, 0.4152862791362344, 0.4100000000000009, -0.5699999999999982]
ΔQiny: [0.0, 0.1953805535535053, 0.22999999999999998, -0.36]

Desbalances de ángulos y tensiones (vector columna):
Δθ: [-0.0107, 0.0353, -0.0314]
ΔV: [-0.0189, 0.0308, -0.0548]

Tensiones actualizadas (módulos y ángulos):

====Iteración Newton-Raphson: 2 ====


Potencias inyectadas calculadas con las tensiones actuales:
U: ComplexF64[1.0 + 0.0im, 0.9810270539220156 - 0.010478349338247334im, 1.0301151562541002 + 0.036397238211015495im, 0.9447285724744271 - 0.029719628704175438im]
Piny_new: [0.0, 0.3929809597407819, 0.4238515140902081, -0.5318848049454067]
Qiny_new: [0.0, 0.2035693877029869, 0.24340672395143603, -0.3402048883911339]

Desbalances de potencias:
ΔPiny: [0.0, 0.022305319395446277, -0.013851514090208072, -0.038115195054593265]
ΔQiny: [0.0, -0.008188834149483376, -0.01340672395143605, -0.0197951116088661]

Desbalances de ángulos y tensiones (vector columna):
Δθ: [-0.001, -0.001, -0.0028]
ΔV: [-0.0035, -0.0015, -0.0061]

Tensiones actualizadas (módulos y ángulos):

====Iteración Newton-Raphson: 3 ====


Potencias inyectadas calculadas con las tensiones actuales:
U: ComplexF64[1.0 + 0.0im, 0.9775185231954422 - 0.011404743385037512im, 1.028690054221843 + 0.035319920167651085im, 0.9385889378425498 - 0.03217866816126548im]
Piny_new: [0.0, 0.4150559481412324, 0.4100196610807854, -0.569635886487407]
Qiny_new: [0.0, 0.1955133150651249, 0.2300235846927592, -0.35988451860004894]

Desbalances de potencias:
ΔPiny: [0.0, 0.00023033099499575327, -1.9661080785382534e-5, -0.0003641135125929118]
ΔQiny: [0.0, -0.0001327615116213654, -2.3584692759204273e-5, -0.00011548139995104512]

Desbalances de ángulos y tensiones (vector columna):
Δθ: [-0.0, -0.0, -0.0]
ΔV: [-0.0, -0.0, -0.0001]

Tensiones actualizadas (módulos y ángulos):

====Iteración Newton-Raphson: 4 ====


Potencias inyectadas calculadas con las tensiones actuales:
U: ComplexF64[1.0 + 0.0im, 0.9774871218425273 - 0.011412436298000882im, 1.0286875973030574 + 0.03531848145541825im, 0.9385364475970698 - 0.03220339060334322im]
Piny_new: [0.0, 0.4152862580571388, 0.41000000004693693, -0.5699999684680861]
Qiny_new: [0.0, 0.1953805678905627, 0.23000000006483512, -0.3599999945851018]

Desbalances de potencias:
ΔPiny: [0.0, 2.1079089362885384e-8, -4.693689881207774e-11, -3.153191385774079e-8]
ΔQiny: [0.0, -1.433705917874839e-8, -6.483513725896728e-11, -5.414898196498541e-9]

¡Convergencia alcanzada!

****Resultados finales****

1. Tensiones finales:
Nodo 1: V = 1.0∠0.0°
Nodo 2: V = 0.9776∠-0.6704°
Nodo 3: V = 1.0293∠1.9652°
Nodo 4: V = 0.9391∠-1.9652°

2. Potencias generadas por el slack:
Pgen_slack: 0.4652445288172211 p.u.
Qgen_slack: 0.4794719066219366 p.u.

3. Pérdidas totales:
P_totales: 0.020530807953449415 p.u.
Q_totales: 0.584575244164167 p.u.

Violaciones de tensión: Inf

Tensiones de la línea 1-2:

Corrientes de la línea 1-2:
I_1 = 0.2624∠-49.3462°
I_2 = 0.2624∠130.6538°

Potencias aparentes de la línea 1-2:
S_1 = 0.1709770733006417 + 0.19910340604832832im
S_2 = -0.16940014924365568 - 0.19267073997182013im

Violación de flujo en la línea 1-2: 0.0

Tensiones de la línea 1-3:

Corrientes de la línea 1-3:
I_1 = 0.4568∠152.6739°
I_3 = 0.4568∠-27.3261°

Potencias aparentes de la línea 1-3:
S_1 = -0.40578411600673503 - 0.20967504145707316im
S_3 = 0.4100203398307045 + 0.2300229133738345im

Violación de flujo en la línea 1-3: 0.0

Tensiones de la línea 2-4:

Corrientes de la línea 2-4:
I_2 = 9.8802∠124.7157°
I_4 = 6.2405∠130.3017°

Potencias aparentes de la línea 2-4:
S_2 = -5.5425393762923605 - 7.441114384415285im
S_4 = -3.9998678684448428 - 4.606110838499365im

Violación de flujo en la línea 2-4: 0.0

Pérdidas totales:
P_totales = -9.536594096856248
Q_totales = -12.020444684921381

Información de Generadores:
----------------------------

Generador 1:
Estado u: 0.5747
P inicial: 46.5245 MW
Q inicial: 47.9472 MVAr
Límites P: [0, 101] MW
Límites Q: [-49, 50] MVAr
P ajustada: 46.5245 MW
Q ajustada: 47.9472 MVAr
Estado: Encendido

Generador 2:
Estado u: 0.8962
P inicial: 99.5286 MW
Q inicial: 49.5381 MVAr
Límites P: [0, 100] MW
Límites Q: [-48, 50] MVAr
P ajustada: 99.5286 MW
Q ajustada: 49.5381 MVAr
Estado: Encendido

Generador 3:
Estado u: 0.9572
P inicial: 100.0 MW
Q inicial: 50.0 MVAr
Límites P: [0, 100] MW
Límites Q: [-50, 50] MVAr
P ajustada: 100.0 MW
Q ajustada: 50.0 MVAr
Estado: Encendido
fitValue: Inf

Mejor fitness actual: Inf
Iteraciones sin mejora: 7

=========== Iteración 8 ==============
Tiempo transcurrido: 0.15 segundos

Actualizando partícula 1
fitValue: Inf

Actualizando partícula 2
fitValue: Inf

Actualizando partícula 3
fitValue: Inf

Actualizando partícula 4
fitValue: Inf

Actualizando partícula 5
fitValue: Inf

Mejor fitness actual: Inf
Iteraciones sin mejora: 8

=========== Iteración 9 ==============
Tiempo transcurrido: 0.16 segundos

Actualizando partícula 1
fitValue: Inf

Actualizando partícula 2
fitValue: Inf

Actualizando partícula 3
fitValue: Inf

Actualizando partícula 4
fitValue: Inf

Actualizando partícula 5
fitValue: Inf

Mejor fitness actual: Inf
Iteraciones sin mejora: 9

=========== Iteración 10 ==============
Tiempo transcurrido: 0.16 segundos

Actualizando partícula 1
fitValue: Inf

Actualizando partícula 2
fitValue: Inf

Actualizando partícula 3
fitValue: Inf

Actualizando partícula 4
fitValue: Inf

Actualizando partícula 5

Comprobación de potencias generadas y demandadas:
Pd: [0.7, 0.58, 0.59, 0.57]
Qd: [0.49, 0.3, 0.27, 0.36]
Pgen: [0.0, 0.9863965919642916, 0.9865500485578934]
Qgen: [0.0, 0.4866686601250059, 0.4865500485578934]

Potencias activas inyectadas reales:
Piny: [-0.7, 0.4063965919642917, 0.39655004855789344, -0.57]

Potencias reactivas inyectadas:
Qiny: [-0.49, 0.18666866012500594, 0.2165500485578934, -0.36]

====Iteración Newton-Raphson: 1 ====


Potencias inyectadas calculadas con las tensiones actuales:
U: ComplexF64[1.0 + 0.0im, 1.0 + 0.0im, 1.0 + 0.0im, 1.0 + 0.0im]
Piny_new: [0.0, -6.217248937900877e-15, -8.881784197001252e-16, -1.7763568394002505e-15]
Qiny_new: [0.0, -1.7763568394002505e-15, 0.0, 0.0]

Desbalances de potencias:
ΔPiny: [0.0, 0.4063965919642979, 0.39655004855789433, -0.5699999999999982]
ΔQiny: [0.0, 0.1866686601250077, 0.2165500485578934, -0.36]

Desbalances de ángulos y tensiones (vector columna):
Δθ: [-0.0113, 0.0343, -0.0321]
ΔV: [-0.0199, 0.0292, -0.0558]

Tensiones actualizadas (módulos y ángulos):

====Iteración Newton-Raphson: 2 ====


Potencias inyectadas calculadas con las tensiones actuales:
U: ComplexF64[1.0 + 0.0im, 0.9800031274360479 - 0.01108567123715661im, 1.0285684085969629 + 0.035272904208236054im, 0.9436929741072031 - 0.030282930793571243im]
Piny_new: [0.0, 0.38357851027880696, 0.4092877256140723, -0.5310267745403596]
Qiny_new: [0.0, 0.19504186297768666, 0.22882330483477692, -0.3399923251008632]

Desbalances de potencias:
ΔPiny: [0.0, 0.022818081685484715, -0.012737677056178842, -0.038973225459640326]
ΔQiny: [0.0, -0.008373202852680728, -0.012273256276883526, -0.020007674899136796]

Desbalances de ángulos y tensiones (vector columna):
Δθ: [-0.001, -0.0009, -0.0029]
ΔV: [-0.0036, -0.0013, -0.0062]

Tensiones actualizadas (módulos y ángulos):

====Iteración Newton-Raphson: 3 ====


Potencias inyectadas calculadas con las tensiones actuales:
U: ComplexF64[1.0 + 0.0im, 0.9764304793702661 - 0.012036956271993894im, 1.0272571851022352 + 0.0342809902707087im, 0.9374400519328874 - 0.03280730089264506im]
Piny_new: [0.0, 0.40615631562171445, 0.3965667303345583, -0.5696202521430889]
Qiny_new: [0.0, 0.18680774664257677, 0.2165699956026272, -0.3598811207577562]

Desbalances de potencias:
ΔPiny: [0.0, 0.00024027634257722807, -1.6681776664861925e-5, -0.0003797478569110835]
ΔQiny: [0.0, -0.00013908651757083001, -1.994704473382014e-5, -0.00011887924224379676]

Desbalances de ángulos y tensiones (vector columna):
Δθ: [-0.0, -0.0, -0.0]
ΔV: [-0.0, -0.0, -0.0001]

Tensiones actualizadas (módulos y ángulos):

====Iteración Newton-Raphson: 4 ====


Potencias inyectadas calculadas con las tensiones actuales:
U: ComplexF64[1.0 + 0.0im, 0.9763977354234895 - 0.012044996112072647im, 1.0272550984015496 + 0.034279768275338345im, 0.9373853608854877 - 0.03283315179433836im]
Piny_new: [0.0, 0.4063965690139346, 0.3965500485918156, -0.5699999656680986]
Qiny_new: [0.0, 0.1866686757937197, 0.2165500486046149, -0.359999994197621]

Desbalances de potencias:
ΔPiny: [0.0, 2.2950357059237092e-8, -3.392214287245565e-11, -3.4331901321849045e-8]
ΔQiny: [0.0, -1.5668713770899956e-8, -4.672151554530046e-11, -5.8023789661909575e-9]

¡Convergencia alcanzada!

****Resultados finales****

1. Tensiones finales:
Nodo 1: V = 1.0∠0.0°
Nodo 2: V = 0.9765∠-0.7047°
Nodo 3: V = 1.0278∠1.9137°
Nodo 4: V = 0.938∠-2.0054°

2. Potencias generadas por el slack:
Pgen_slack: 0.48746887726535415 p.u.
Qgen_slack: 0.500860689649963 p.u.

3. Pérdidas totales:
P_totales: 0.02041551778753936 p.u.
Q_totales: 0.5822934681853565 p.u.

Violaciones de tensión: Inf

Tensiones de la línea 1-2:

Corrientes de la línea 1-2:
I_1 = 0.2755∠-49.1967°
I_2 = 0.2755∠130.8033°

Potencias aparentes de la línea 1-2:
S_1 = 0.180038988484994 + 0.2085527000806131im
S_2 = -0.17830104286571874 - 0.20146318693735132im

Violación de flujo en la línea 1-2: 0.0

Tensiones de la línea 1-3:

Corrientes de la línea 1-3:
I_1 = 0.4396∠153.2681°
I_3 = 0.4396∠-26.7319°

Potencias aparentes de la línea 1-3:
S_1 = -0.39263848494929565 - 0.19775020640704177im
S_3 = 0.3965629329733801 + 0.21660052429775958im

Violación de flujo en la línea 1-3: 0.0

Tensiones de la línea 2-4:

Corrientes de la línea 2-4:
I_2 = 9.87∠124.6788°
I_4 = 6.232∠130.2598°

Potencias aparentes de la línea 2-4:
S_2 = -5.53063134795042 - 7.424077940417067im
S_4 = -3.9896610052679997 - 4.5950337188242365im

Violación de flujo en la línea 2-4: 0.0

Pérdidas totales:
P_totales = -9.51462995957506
Q_totales = -11.993171828207323

Información de Generadores:
----------------------------

Generador 1:
Estado u: 0.5354
P inicial: 48.7469 MW
Q inicial: 50.0861 MVAr
Límites P: [0, 101] MW
Límites Q: [-49, 50] MVAr
P ajustada: 48.7469 MW
Q ajustada: 50.0861 MVAr
Estado: Encendido

Generador 2:
Estado u: 0.8891
P inicial: 98.6397 MW
Q inicial: 48.6669 MVAr
Límites P: [0, 100] MW
Límites Q: [-48, 50] MVAr
P ajustada: 98.6397 MW
Q ajustada: 48.6669 MVAr
Estado: Encendido

Generador 3:
Estado u: 0.8892
P inicial: 98.655 MW
Q inicial: 48.655 MVAr
Límites P: [0, 100] MW
Límites Q: [-50, 50] MVAr
P ajustada: 98.655 MW
Q ajustada: 48.655 MVAr
Estado: Encendido
fitValue: Inf

Mejor fitness actual: Inf
Iteraciones sin mejora: 10

=========== Iteración 11 ==============
Tiempo transcurrido: 0.19 segundos

Actualizando partícula 1
fitValue: Inf

Actualizando partícula 2
fitValue: Inf

Actualizando partícula 3
fitValue: Inf

Actualizando partícula 4
fitValue: Inf

Actualizando partícula 5
fitValue: Inf

Mejor fitness actual: Inf
Iteraciones sin mejora: 11

=========== Iteración 12 ==============
Tiempo transcurrido: 0.19 segundos

Actualizando partícula 1
fitValue: Inf

Actualizando partícula 2
fitValue: Inf

Actualizando partícula 3
fitValue: Inf

Actualizando partícula 4
fitValue: Inf

Actualizando partícula 5
fitValue: Inf

Mejor fitness actual: Inf
Iteraciones sin mejora: 12

=========== Iteración 13 ==============
Tiempo transcurrido: 0.19 segundos

Actualizando partícula 1
fitValue: Inf

Actualizando partícula 2
fitValue: Inf

Actualizando partícula 3
fitValue: Inf

Actualizando partícula 4
fitValue: Inf

Actualizando partícula 5
fitValue: Inf

Mejor fitness actual: Inf
Iteraciones sin mejora: 13

=========== Iteración 14 ==============
Tiempo transcurrido: 0.19 segundos

Actualizando partícula 1
fitValue: Inf

Actualizando partícula 2
fitValue: Inf

Actualizando partícula 3
fitValue: Inf

Actualizando partícula 4
fitValue: Inf

Actualizando partícula 5
fitValue: Inf

Mejor fitness actual: Inf
Iteraciones sin mejora: 14

=========== Iteración 15 ==============
Tiempo transcurrido: 0.19 segundos

Actualizando partícula 1
fitValue: Inf

Actualizando partícula 2
fitValue: Inf

Actualizando partícula 3
fitValue: Inf

Actualizando partícula 4
fitValue: Inf

Actualizando partícula 5
fitValue: Inf

Mejor fitness actual: Inf
Iteraciones sin mejora: 15

=========== Iteración 16 ==============
Tiempo transcurrido: 0.2 segundos

Actualizando partícula 1
fitValue: Inf

Actualizando partícula 2
fitValue: Inf

Actualizando partícula 3
fitValue: Inf

Actualizando partícula 4
fitValue: Inf

Actualizando partícula 5
fitValue: Inf

Mejor fitness actual: Inf
Iteraciones sin mejora: 16

=========== Iteración 17 ==============
Tiempo transcurrido: 0.2 segundos

Actualizando partícula 1
fitValue: Inf

Actualizando partícula 2
fitValue: Inf

Actualizando partícula 3
fitValue: Inf

Actualizando partícula 4
fitValue: Inf

Actualizando partícula 5
fitValue: Inf

Mejor fitness actual: Inf
Iteraciones sin mejora: 17

=========== Iteración 18 ==============
Tiempo transcurrido: 0.2 segundos

Actualizando partícula 1
fitValue: Inf

Actualizando partícula 2

Comprobación de potencias generadas y demandadas:
Pd: [0.7, 0.58, 0.59, 0.57]
Qd: [0.49, 0.3, 0.27, 0.36]
Pgen: [0.0, 0.4868684531596566, 1.0]
Qgen: [0.0, -0.0028689159035364753, 0.5]

Potencias activas inyectadas reales:
Piny: [-0.7, -0.09313154684034336, 0.41000000000000003, -0.57]

Potencias reactivas inyectadas:
Qiny: [-0.49, -0.3028689159035365, 0.22999999999999998, -0.36]

====Iteración Newton-Raphson: 1 ====


Potencias inyectadas calculadas con las tensiones actuales:
U: ComplexF64[1.0 + 0.0im, 1.0 + 0.0im, 1.0 + 0.0im, 1.0 + 0.0im]
Piny_new: [0.0, -6.217248937900877e-15, -8.881784197001252e-16, -1.7763568394002505e-15]
Qiny_new: [0.0, -1.7763568394002505e-15, 0.0, 0.0]

Desbalances de potencias:
ΔPiny: [0.0, -0.09313154684033714, 0.4100000000000009, -0.5699999999999982]
ΔQiny: [0.0, -0.3028689159035347, 0.22999999999999998, -0.36]

Desbalances de ángulos y tensiones (vector columna):
Δθ: [-0.0468, 0.0353, -0.0675]
ΔV: [-0.0771, 0.0308, -0.113]

Tensiones actualizadas (módulos y ángulos):

====Iteración Newton-Raphson: 2 ====


Potencias inyectadas calculadas con las tensiones actuales:
U: ComplexF64[1.0 + 0.0im, 0.9218995464274038 - 0.04313678094443598im, 1.0301151562541002 + 0.036397238211015495im, 0.8849996717994313 - 0.05985015543161171im]
Piny_new: [0.0, -0.11316321634116094, 0.4238515140902081, -0.48380137123927625]
Qiny_new: [0.0, -0.25047190309882256, 0.24340672395143603, -0.3275163618626044]

Desbalances de potencias:
ΔPiny: [0.0, 0.020031669500817584, -0.013851514090208072, -0.0861986287607237]
ΔQiny: [0.0, -0.05239701280471393, -0.01340672395143605, -0.032483638137395576]

Desbalances de ángulos y tensiones (vector columna):
Δθ: [-0.0055, -0.001, -0.0108]
ΔV: [-0.0124, -0.0015, -0.018]

Tensiones actualizadas (módulos y ángulos):

====Iteración Newton-Raphson: 3 ====


Potencias inyectadas calculadas con las tensiones actuales:
U: ComplexF64[1.0 + 0.0im, 0.9092184589932214 - 0.047518585377195124im, 1.028690054221843 + 0.035319920167651085im, 0.8663156851297776 - 0.06796188142136504im]
Piny_new: [0.0, -0.0945291525853069, 0.4100196610807854, -0.5671412929349928]
Qiny_new: [0.0, -0.3011872557640729, 0.2300235846927592, -0.3594956727597036]

Desbalances de potencias:
ΔPiny: [0.0, 0.0013976057449635454, -1.9661080785382534e-5, -0.0028587070650071267]
ΔQiny: [0.0, -0.001681660139463581, -2.3584692759204273e-5, -0.000504327240296365]

Desbalances de ángulos y tensiones (vector columna):
Δθ: [-0.0001, -0.0, -0.0003]
ΔV: [-0.0003, -0.0, -0.0005]

Tensiones actualizadas (módulos y ángulos):

====Iteración Newton-Raphson: 4 ====


Potencias inyectadas calculadas con las tensiones actuales:
U: ComplexF64[1.0 + 0.0im, 0.9088790057248929 - 0.04761268676847279im, 1.0286875973030574 + 0.03531848145541825im, 0.8658075886802091 - 0.06820566197069032im]
Piny_new: [0.0, -0.09313322301253428, 0.41000000004693693, -0.5699972534187984]
Qiny_new: [0.0, -0.30286730725814753, 0.23000000006483512, -0.35999983939065455]

Desbalances de potencias:
ΔPiny: [0.0, 1.6761721909203109e-6, -4.693689881207774e-11, -2.7465812015847746e-6]
ΔQiny: [0.0, -1.6086453889507801e-6, -6.483513725896728e-11, -1.6060934543427052e-7]

¡Convergencia alcanzada!

****Resultados finales****

1. Tensiones finales:
Nodo 1: V = 1.0∠0.0°
Nodo 2: V = 0.9101∠-2.9966°
Nodo 3: V = 1.0293∠1.9652°
Nodo 4: V = 0.8685∠-4.5034°

2. Potencias generadas por el slack:
Pgen_slack: 1.0007449698253799 p.u.
Qgen_slack: 1.0827929530587157 p.u.

3. Pérdidas totales:
P_totales: 0.047613422985036624 p.u.
Q_totales: 0.6896468211439061 p.u.

Violaciones de tensión: Inf

Tensiones de la línea 1-2:

Corrientes de la línea 1-2:
I_1 = 1.0691∠-48.6390°
I_2 = 1.0691∠131.3610°

Potencias aparentes de la línea 1-2:
S_1 = 0.7064796489793987 + 0.8024441001392741im
S_2 = -0.6803095869720267 - 0.6956898976466743im

Violación de flujo en la línea 1-2: 0.0

Tensiones de la línea 1-3:

Corrientes de la línea 1-3:
I_1 = 0.4568∠152.6739°
I_3 = 0.4568∠-27.3261°

Potencias aparentes de la línea 1-3:
S_1 = -0.40578411600673503 - 0.20967504145707316im
S_3 = 0.4100203398307045 + 0.2300229133738345im

Violación de flujo en la línea 1-3: 0.0

Tensiones de la línea 2-4:

Corrientes de la línea 2-4:
I_2 = 9.2424∠122.4270°
I_4 = 5.7054∠127.7094°

Potencias aparentes de la línea 2-4:
S_2 = -4.823076079606367 - 6.416367855734043im
S_4 = -3.386624496275727 - 3.9362102100876193im

Violación de flujo en la línea 2-4: 0.0

Pérdidas totales:
P_totales = -8.179294290050752
Q_totales = -10.225475991412301

Información de Generadores:
----------------------------

Generador 1:
Estado u: 0.9949
P inicial: 100.0745 MW
Q inicial: 108.2793 MVAr
Límites P: [0, 101] MW
Límites Q: [-49, 50] MVAr
P ajustada: 100.0745 MW
Q ajustada: 108.2793 MVAr
Estado: Encendido

Generador 2:
Estado u: 0.4895
P inicial: 48.6868 MW
Q inicial: -0.2869 MVAr
Límites P: [0, 100] MW
Límites Q: [-48, 50] MVAr
P ajustada: 48.6868 MW
Q ajustada: -0.2869 MVAr
Estado: Encendido

Generador 3:
Estado u: 0.9267
P inicial: 100.0 MW
Q inicial: 50.0 MVAr
Límites P: [0, 100] MW
Límites Q: [-50, 50] MVAr
P ajustada: 100.0 MW
Q ajustada: 50.0 MVAr
Estado: Encendido
fitValue: Inf

Actualizando partícula 3
fitValue: Inf

Actualizando partícula 4
fitValue: Inf

Actualizando partícula 5
fitValue: Inf

Mejor fitness actual: Inf
Iteraciones sin mejora: 18

=========== Iteración 19 ==============
Tiempo transcurrido: 0.24 segundos

Actualizando partícula 1
fitValue: Inf

Actualizando partícula 2
fitValue: Inf

Actualizando partícula 3
fitValue: Inf

Actualizando partícula 4
fitValue: Inf

Actualizando partícula 5
fitValue: Inf

Mejor fitness actual: Inf
Iteraciones sin mejora: 19

=========== Iteración 20 ==============
Tiempo transcurrido: 0.24 segundos

Actualizando partícula 1
fitValue: Inf

Actualizando partícula 2
fitValue: Inf

Actualizando partícula 3
fitValue: Inf

Actualizando partícula 4
fitValue: Inf

Actualizando partícula 5
fitValue: Inf

Mejor fitness actual: Inf
Iteraciones sin mejora: 20

=========== Iteración 21 ==============
Tiempo transcurrido: 0.24 segundos

Actualizando partícula 1
fitValue: Inf

Actualizando partícula 2
fitValue: Inf

Actualizando partícula 3
fitValue: Inf

Actualizando partícula 4
fitValue: Inf

Actualizando partícula 5

Comprobación de potencias generadas y demandadas:
Pd: [0.7, 0.58, 0.59, 0.57]
Qd: [0.49, 0.3, 0.27, 0.36]
Pgen: [0.0, 0.9962650476485935, 1.0]
Qgen: [0.0, 0.49633974669562164, 0.5]

Potencias activas inyectadas reales:
Piny: [-0.7, 0.4162650476485935, 0.41000000000000003, -0.57]

Potencias reactivas inyectadas:
Qiny: [-0.49, 0.19633974669562165, 0.22999999999999998, -0.36]

====Iteración Newton-Raphson: 1 ====


Potencias inyectadas calculadas con las tensiones actuales:
U: ComplexF64[1.0 + 0.0im, 1.0 + 0.0im, 1.0 + 0.0im, 1.0 + 0.0im]
Piny_new: [0.0, -6.217248937900877e-15, -8.881784197001252e-16, -1.7763568394002505e-15]
Qiny_new: [0.0, -1.7763568394002505e-15, 0.0, 0.0]

Desbalances de potencias:
ΔPiny: [0.0, 0.41626504764859973, 0.4100000000000009, -0.5699999999999982]
ΔQiny: [0.0, 0.19633974669562343, 0.22999999999999998, -0.36]

Desbalances de ángulos y tensiones (vector columna):
Δθ: [-0.0106, 0.0353, -0.0314]
ΔV: [-0.0188, 0.0308, -0.0547]

Tensiones actualizadas (módulos y ángulos):

====Iteración Newton-Raphson: 2 ====


Potencias inyectadas calculadas con las tensiones actuales:
U: ComplexF64[1.0 + 0.0im, 0.9811397668396631 - 0.01041140356563907im, 1.0301151562541002 + 0.036397238211015495im, 0.9448425729955291 - 0.029657529148734665im]
Piny_new: [0.0, 0.3940173869233302, 0.4238515140902081, -0.5319793130507966]
Qiny_new: [0.0, 0.2045095768605451, 0.24340672395143603, -0.3402282717239709]

Desbalances de potencias:
ΔPiny: [0.0, 0.022247660725263296, -0.013851514090208072, -0.03802068694920335]
ΔQiny: [0.0, -0.008169830164923453, -0.01340672395143605, -0.019771728276029077]

Desbalances de ángulos y tensiones (vector columna):
Δθ: [-0.001, -0.001, -0.0028]
ΔV: [-0.0035, -0.0015, -0.006]

Tensiones actualizadas (módulos y ángulos):

====Iteración Newton-Raphson: 3 ====


Potencias inyectadas calculadas con las tensiones actuales:
U: ComplexF64[1.0 + 0.0im, 0.9776381161926719 - 0.011335135421552496im, 1.028690054221843 + 0.035319920167651085im, 0.9387152133259056 - 0.032109451472836864im]
Piny_new: [0.0, 0.41603579355096665, 0.4100196610807854, -0.5696375736651912]
Qiny_new: [0.0, 0.1964718307554792, 0.2300235846927592, -0.35988488683579395]

Desbalances de potencias:
ΔPiny: [0.0, 0.0002292540976268631, -1.9661080785382534e-5, -0.0003624263348087631]
ΔQiny: [0.0, -0.00013208405985754013, -2.3584692759204273e-5, -0.00011511316420603768]

Desbalances de ángulos y tensiones (vector columna):
Δθ: [-0.0, -0.0, -0.0]
ΔV: [-0.0, -0.0, -0.0001]

Tensiones actualizadas (módulos y ángulos):

====Iteración Newton-Raphson: 4 ====


Potencias inyectadas calculadas con las tensiones actuales:
U: ComplexF64[1.0 + 0.0im, 0.9776068590030098 - 0.01134279116116616im, 1.0286875973030574 + 0.03531848145541825im, 0.9386629597819619 - 0.03213405247924053im]
Piny_new: [0.0, 0.4162650267663272, 0.41000000004693693, -0.5699999687624386]
Qiny_new: [0.0, 0.19633976089302682, 0.23000000006483512, -0.3599999946261788]

Desbalances de potencias:
ΔPiny: [0.0, 2.0882266305033426e-8, -4.693689881207774e-11, -3.123756131540034e-8]
ΔQiny: [0.0, -1.4197405168170363e-8, -6.483513725896728e-11, -5.373821165832737e-9]

¡Convergencia alcanzada!

****Resultados finales****

1. Tensiones finales:
Nodo 1: V = 1.0∠0.0°
Nodo 2: V = 0.9777∠-0.6646°
Nodo 3: V = 1.0293∠1.9652°
Nodo 4: V = 0.9392∠-1.9595°

2. Potencias generadas por el slack:
Pgen_slack: 0.4642446354010923 p.u.
Qgen_slack: 0.4784349835346402 p.u.

3. Pérdidas totales:
P_totales: 0.020509683049685923 p.u.
Q_totales: 0.5844975142189888 p.u.

Violaciones de tensión: Inf

Tensiones de la línea 1-2:

Corrientes de la línea 1-2:
I_1 = 0.261∠-49.3648°
I_2 = 0.261∠130.6352°

Potencias aparentes de la línea 1-2:
S_1 = 0.1699729449274141 + 0.1980647068775916im
S_2 = -0.16841330446648117 - 0.19170254489512542im

Violación de flujo en la línea 1-2: 0.0

Tensiones de la línea 1-3:

Corrientes de la línea 1-3:
I_1 = 0.4568∠152.6739°
I_3 = 0.4568∠-27.3261°

Potencias aparentes de la línea 1-3:
S_1 = -0.40578411600673503 - 0.20967504145707316im
S_3 = 0.4100203398307045 + 0.2300229133738345im

Violación de flujo en la línea 1-3: 0.0

Tensiones de la línea 2-4:

Corrientes de la línea 2-4:
I_2 = 9.8814∠124.7198°
I_4 = 6.2413∠130.3066°

Potencias aparentes de la línea 2-4:
S_2 = -5.543827074041724 - 7.442976983781588im
S_4 = -4.0009428400945035 - 4.607238616185426im

Violación de flujo en la línea 2-4: 0.0

Pérdidas totales:
P_totales = -9.538974049851326
Q_totales = -12.023505566067787

Información de Generadores:
----------------------------

Generador 1:
Estado u: 0.5791
P inicial: 46.4245 MW
Q inicial: 47.8435 MVAr
Límites P: [0, 101] MW
Límites Q: [-49, 50] MVAr
P ajustada: 46.4245 MW
Q ajustada: 47.8435 MVAr
Estado: Encendido

Generador 2:
Estado u: 0.897
P inicial: 99.6265 MW
Q inicial: 49.634 MVAr
Límites P: [0, 100] MW
Límites Q: [-48, 50] MVAr
P ajustada: 99.6265 MW
Q ajustada: 49.634 MVAr
Estado: Encendido

Generador 3:
Estado u: 1.0
P inicial: 100.0 MW
Q inicial: 50.0 MVAr
Límites P: [0, 100] MW
Límites Q: [-50, 50] MVAr
P ajustada: 100.0 MW
Q ajustada: 50.0 MVAr
Estado: Encendido
fitValue: Inf

Mejor fitness actual: Inf
Iteraciones sin mejora: 21

=========== Iteración 22 ==============
Tiempo transcurrido: 0.27 segundos

Actualizando partícula 1
fitValue: Inf

Actualizando partícula 2
fitValue: Inf

Actualizando partícula 3
fitValue: Inf

Actualizando partícula 4
fitValue: Inf

Actualizando partícula 5
fitValue: Inf

Mejor fitness actual: Inf
Iteraciones sin mejora: 22

=========== Iteración 23 ==============
Tiempo transcurrido: 0.27 segundos

Actualizando partícula 1
fitValue: Inf

Actualizando partícula 2
fitValue: Inf

Actualizando partícula 3
fitValue: Inf

Actualizando partícula 4
fitValue: Inf

Actualizando partícula 5
fitValue: Inf

Mejor fitness actual: Inf
Iteraciones sin mejora: 23

=========== Iteración 24 ==============
Tiempo transcurrido: 0.27 segundos

Actualizando partícula 1
fitValue: Inf

Actualizando partícula 2
fitValue: Inf

Actualizando partícula 3
fitValue: Inf

Actualizando partícula 4
fitValue: Inf

Actualizando partícula 5
fitValue: Inf

Mejor fitness actual: Inf
Iteraciones sin mejora: 24

=========== Iteración 25 ==============
Tiempo transcurrido: 0.27 segundos

Actualizando partícula 1
fitValue: Inf

Actualizando partícula 2
fitValue: Inf

Actualizando partícula 3
fitValue: Inf

Actualizando partícula 4
fitValue: Inf

Actualizando partícula 5

Comprobación de potencias generadas y demandadas:
Pd: [0.7, 0.58, 0.59, 0.57]
Qd: [0.49, 0.3, 0.27, 0.36]
Pgen: [0.0, 0.9750751750699007, 1.0]
Qgen: [0.0, 0.4755736715685026, 0.5]

Potencias activas inyectadas reales:
Piny: [-0.7, 0.39507517506990075, 0.41000000000000003, -0.57]

Potencias reactivas inyectadas:
Qiny: [-0.49, 0.17557367156850262, 0.22999999999999998, -0.36]

====Iteración Newton-Raphson: 1 ====


Potencias inyectadas calculadas con las tensiones actuales:
U: ComplexF64[1.0 + 0.0im, 1.0 + 0.0im, 1.0 + 0.0im, 1.0 + 0.0im]
Piny_new: [0.0, -6.217248937900877e-15, -8.881784197001252e-16, -1.7763568394002505e-15]
Qiny_new: [0.0, -1.7763568394002505e-15, 0.0, 0.0]

Desbalances de potencias:
ΔPiny: [0.0, 0.39507517506990697, 0.4100000000000009, -0.5699999999999982]
ΔQiny: [0.0, 0.1755736715685044, 0.22999999999999998, -0.36]

Desbalances de ángulos y tensiones (vector columna):
Δθ: [-0.0121, 0.0353, -0.0329]
ΔV: [-0.0212, 0.0308, -0.0571]

Tensiones actualizadas (módulos y ángulos):

====Iteración Newton-Raphson: 2 ====


Potencias inyectadas calculadas con las tensiones actuales:
U: ComplexF64[1.0 + 0.0im, 0.9786985675852476 - 0.011857258882747171im, 1.0301151562541002 + 0.036397238211015495im, 0.9423736090802526 - 0.030998447012363737im]
Piny_new: [0.0, 0.3716325593724585, 0.4238515140902081, -0.5299349251793831]
Qiny_new: [0.0, 0.184212346859326, 0.24340672395143603, -0.3397211371928992]

Desbalances de potencias:
ΔPiny: [0.0, 0.02344261569744227, -0.013851514090208072, -0.04006507482061683]
ΔQiny: [0.0, -0.008638675290823378, -0.01340672395143605, -0.020278862807100784]

Desbalances de ángulos y tensiones (vector columna):
Δθ: [-0.0011, -0.001, -0.003]
ΔV: [-0.0036, -0.0015, -0.0063]

Tensiones actualizadas (módulos y ángulos):

====Iteración Newton-Raphson: 3 ====


Potencias inyectadas calculadas con las tensiones actuales:
U: ComplexF64[1.0 + 0.0im, 0.9750399885439225 - 0.01284209932728831im, 1.028690054221843 + 0.035319920167651085im, 0.9359716871384929 - 0.03360781415986725im]
Piny_new: [0.0, 0.3948217943649781, 0.4100196610807854, -0.5695995098680369]
Qiny_new: [0.0, 0.17572127636525803, 0.2300235846927592, -0.35987665348225684]

Desbalances de potencias:
ΔPiny: [0.0, 0.00025338070492264553, -1.9661080785382534e-5, -0.0004004901319630827]
ΔQiny: [0.0, -0.00014760479675540727, -2.3584692759204273e-5, -0.0001233465177431503]

Desbalances de ángulos y tensiones (vector columna):
Δθ: [-0.0, -0.0, -0.0]
ΔV: [-0.0, -0.0, -0.0001]

Tensiones actualizadas (módulos y ángulos):

====Iteración Newton-Raphson: 4 ====


Potencias inyectadas calculadas con las tensiones actuales:
U: ComplexF64[1.0 + 0.0im, 0.9750054454388118 - 0.012850606045018023im, 1.0286875973030574 + 0.03531848145541825im, 0.9359140565426946 - 0.03363517077703342im]
Piny_new: [0.0, 0.39507514950423717, 0.41000000004693693, -0.5699999617504523]
Qiny_new: [0.0, 0.17557368910961058, 0.23000000006483512, -0.35999999366484187]

Desbalances de potencias:
ΔPiny: [0.0, 2.5565663586135656e-8, -4.693689881207774e-11, -3.824954764031219e-8]
ΔQiny: [0.0, -1.75411079550436e-8, -6.483513725896728e-11, -6.335158120318596e-9]

¡Convergencia alcanzada!

****Resultados finales****

1. Tensiones finales:
Nodo 1: V = 1.0∠0.0°
Nodo 2: V = 0.9751∠-0.7563°
Nodo 3: V = 1.0293∠1.9652°
Nodo 4: V = 0.9365∠-2.0569°

2. Potencias generadas por el slack:
Pgen_slack: 0.485914845784267 p.u.
Qgen_slack: 0.500976326303366 p.u.

3. Pérdidas totales:
P_totales: 0.0209900208541679 p.u.
Q_totales: 0.5862727818605955 p.u.

Violaciones de tensión: Inf

Tensiones de la línea 1-2:

Corrientes de la línea 1-2:
I_1 = 0.2922∠-49.0135°
I_2 = 0.2922∠130.9865°

Potencias aparentes de la línea 1-2:
S_1 = 0.19166172535024328 + 0.22058636212708826im
S_2 = -0.1897066335870738 - 0.21261105576678171im

Violación de flujo en la línea 1-2: 0.0

Tensiones de la línea 1-3:

Corrientes de la línea 1-3:
I_1 = 0.4568∠152.6739°
I_3 = 0.4568∠-27.3261°

Potencias aparentes de la línea 1-3:
S_1 = -0.40578411600673503 - 0.20967504145707316im
S_3 = 0.4100203398307045 + 0.2300229133738345im

Violación de flujo en la línea 1-3: 0.0

Tensiones de la línea 2-4:

Corrientes de la línea 2-4:
I_2 = 9.857∠124.6309°
I_4 = 6.2209∠130.2063°

Potencias aparentes de la línea 2-4:
S_2 = -5.515430734774119 - 7.402358720513547im
S_4 = -3.9765631931283143 - 4.580752212745748im

Violación de flujo en la línea 2-4: 0.0

Pérdidas totales:
P_totales = -9.485802612315293
Q_totales = -11.954787754982226

Información de Generadores:
----------------------------

Generador 1:
Estado u: 0.4853
P inicial: 48.5915 MW
Q inicial: 50.0976 MVAr
Límites P: [0, 101] MW
Límites Q: [-49, 50] MVAr
P ajustada: 48.5915 MW
Q ajustada: 50.0976 MVAr
Estado: Encendido

Generador 2:
Estado u: 0.8801
P inicial: 97.5075 MW
Q inicial: 47.5574 MVAr
Límites P: [0, 100] MW
Límites Q: [-48, 50] MVAr
P ajustada: 97.5075 MW
Q ajustada: 47.5574 MVAr
Estado: Encendido

Generador 3:
Estado u: 0.9509
P inicial: 100.0 MW
Q inicial: 50.0 MVAr
Límites P: [0, 100] MW
Límites Q: [-50, 50] MVAr
P ajustada: 100.0 MW
Q ajustada: 50.0 MVAr
Estado: Encendido
fitValue: Inf

Mejor fitness actual: Inf
Iteraciones sin mejora: 25

=========== Iteración 26 ==============
Tiempo transcurrido: 0.3 segundos

Actualizando partícula 1
fitValue: Inf

Actualizando partícula 2
fitValue: Inf

Actualizando partícula 3
fitValue: Inf

Actualizando partícula 4
fitValue: Inf

Actualizando partícula 5
fitValue: Inf

Mejor fitness actual: Inf
Iteraciones sin mejora: 26

=========== Iteración 27 ==============
Tiempo transcurrido: 0.3 segundos

Actualizando partícula 1
fitValue: Inf

Actualizando partícula 2
fitValue: Inf

Actualizando partícula 3
fitValue: Inf

Actualizando partícula 4
fitValue: Inf

Actualizando partícula 5
fitValue: Inf

Mejor fitness actual: Inf
Iteraciones sin mejora: 27

=========== Iteración 28 ==============
Tiempo transcurrido: 0.3 segundos

Actualizando partícula 1
fitValue: Inf

Actualizando partícula 2
fitValue: Inf

Actualizando partícula 3
fitValue: Inf

Actualizando partícula 4
fitValue: Inf

Actualizando partícula 5
fitValue: Inf

Mejor fitness actual: Inf
Iteraciones sin mejora: 28

=========== Iteración 29 ==============
Tiempo transcurrido: 0.31 segundos

Actualizando partícula 1
fitValue: Inf

Actualizando partícula 2
fitValue: Inf

Actualizando partícula 3
fitValue: Inf

Actualizando partícula 4
fitValue: Inf

Actualizando partícula 5
fitValue: Inf

Mejor fitness actual: Inf
Iteraciones sin mejora: 29

=========== Iteración 30 ==============
Tiempo transcurrido: 0.31 segundos

Actualizando partícula 1
fitValue: Inf

Actualizando partícula 2
fitValue: Inf

Actualizando partícula 3
fitValue: Inf

Actualizando partícula 4
fitValue: Inf

Actualizando partícula 5
fitValue: Inf

Mejor fitness actual: Inf
Iteraciones sin mejora: 30

=========== Iteración 31 ==============
Tiempo transcurrido: 0.31 segundos

Actualizando partícula 1
fitValue: Inf

Actualizando partícula 2
fitValue: Inf

Actualizando partícula 3
fitValue: Inf

Actualizando partícula 4
fitValue: Inf

Actualizando partícula 5
fitValue: Inf

Mejor fitness actual: Inf
Iteraciones sin mejora: 31

=========== Iteración 32 ==============
Tiempo transcurrido: 0.31 segundos

Actualizando partícula 1
fitValue: Inf

Actualizando partícula 2
fitValue: Inf

Actualizando partícula 3
fitValue: Inf

Actualizando partícula 4
fitValue: Inf

Actualizando partícula 5
fitValue: Inf

Mejor fitness actual: Inf
Iteraciones sin mejora: 32

=========== Iteración 33 ==============
Tiempo transcurrido: 0.31 segundos

Actualizando partícula 1
fitValue: Inf

Actualizando partícula 2
fitValue: Inf

Actualizando partícula 3
fitValue: Inf

Actualizando partícula 4
fitValue: Inf

Actualizando partícula 5
fitValue: Inf

Mejor fitness actual: Inf
Iteraciones sin mejora: 33

=========== Iteración 34 ==============
Tiempo transcurrido: 0.31 segundos

Actualizando partícula 1
fitValue: Inf

Actualizando partícula 2
fitValue: Inf

Actualizando partícula 3
fitValue: Inf

Actualizando partícula 4
fitValue: Inf

Actualizando partícula 5

Comprobación de potencias generadas y demandadas:
Pd: [0.7, 0.58, 0.59, 0.57]
Qd: [0.49, 0.3, 0.27, 0.36]
Pgen: [0.0, 0.9719608267279175, 1.0]
Qgen: [0.0, 0.47252161019335903, 0.5]

Potencias activas inyectadas reales:
Piny: [-0.7, 0.39196082672791754, 0.41000000000000003, -0.57]

Potencias reactivas inyectadas:
Qiny: [-0.49, 0.17252161019335904, 0.22999999999999998, -0.36]

====Iteración Newton-Raphson: 1 ====


Potencias inyectadas calculadas con las tensiones actuales:
U: ComplexF64[1.0 + 0.0im, 1.0 + 0.0im, 1.0 + 0.0im, 1.0 + 0.0im]
Piny_new: [0.0, -6.217248937900877e-15, -8.881784197001252e-16, -1.7763568394002505e-15]
Qiny_new: [0.0, -1.7763568394002505e-15, 0.0, 0.0]

Desbalances de potencias:
ΔPiny: [0.0, 0.39196082672792376, 0.4100000000000009, -0.5699999999999982]
ΔQiny: [0.0, 0.17252161019336082, 0.22999999999999998, -0.36]

Desbalances de ángulos y tensiones (vector columna):
Δθ: [-0.0123, 0.0353, -0.0331]
ΔV: [-0.0216, 0.0308, -0.0575]

Tensiones actualizadas (módulos y ángulos):

====Iteración Newton-Raphson: 2 ====


Potencias inyectadas calculadas con las tensiones actuales:
U: ComplexF64[1.0 + 0.0im, 0.9783395966990841 - 0.012069144501384401im, 1.0301151562541002 + 0.036397238211015495im, 0.94201057720658 - 0.031194906241569655im]
Piny_new: [0.0, 0.36835200917566746, 0.4238515140902081, -0.5296347492092579]
Qiny_new: [0.0, 0.18123933581197268, 0.24340672395143603, -0.3396464434432405]

Desbalances de potencias:
ΔPiny: [0.0, 0.023608817552250083, -0.013851514090208072, -0.04036525079074205]
ΔQiny: [0.0, -0.008717725618613642, -0.01340672395143605, -0.020353556556759467]

Desbalances de ángulos y tensiones (vector columna):
Δθ: [-0.0011, -0.001, -0.003]
ΔV: [-0.0037, -0.0015, -0.0063]

Tensiones actualizadas (módulos y ángulos):

====Iteración Newton-Raphson: 3 ====


Potencias inyectadas calculadas con las tensiones actuales:
U: ComplexF64[1.0 + 0.0im, 0.9746565337994758 - 0.013063580025503934im, 1.028690054221843 + 0.035319920167651085im, 0.9355667335936785 - 0.03382800714208491im]
Piny_new: [0.0, 0.3917037529953972, 0.4100196610807854, -0.569593636008509]
Qiny_new: [0.0, 0.17267165243736268, 0.2300235846927592, -0.3598753969102696]

Desbalances de potencias:
ΔPiny: [0.0, 0.00025707373252031873, -1.9661080785382534e-5, -0.0004063639914909656]
ΔQiny: [0.0, -0.00015004224400363975, -2.3584692759204273e-5, -0.0001246030897303907]

Desbalances de ángulos y tensiones (vector columna):
Δθ: [-0.0, -0.0, -0.0]
ΔV: [-0.0, -0.0, -0.0001]

Tensiones actualizadas (módulos y ángulos):

====Iteración Newton-Raphson: 4 ====


Potencias inyectadas calculadas con las tensiones actuales:
U: ComplexF64[1.0 + 0.0im, 0.974621477638625 - 0.013072220273705836im, 1.0286875973030574 + 0.03531848145541825im, 0.9355082666594167 - 0.033855791875755374im]
Piny_new: [0.0, 0.3919608003940076, 0.41000000004693693, -0.5699999605987252]
Qiny_new: [0.0, 0.1725216282868294, 0.23000000006483512, -0.35999999351015455]

Desbalances de potencias:
ΔPiny: [0.0, 2.6333909941556044e-8, -4.693689881207774e-11, -3.940127479840072e-8]
ΔQiny: [0.0, -1.8093470360858177e-8, -6.483513725896728e-11, -6.489845438828468e-9]

¡Convergencia alcanzada!

****Resultados finales****

1. Tensiones finales:
Nodo 1: V = 1.0∠0.0°
Nodo 2: V = 0.9747∠-0.7678°
Nodo 3: V = 1.0293∠1.9652°
Nodo 4: V = 0.9361∠-2.0741°

2. Potencias generadas por el slack:
Pgen_slack: 0.48910388020533824 p.u.
Qgen_slack: 0.5043057455548838 p.u.

3. Pérdidas totales:
P_totales: 0.021064706933255906 p.u.
Q_totales: 0.5865501397369697 p.u.

Violaciones de tensión: Inf

Tensiones de la línea 1-2:

Corrientes de la línea 1-2:
I_1 = 0.2969∠-48.9787°
I_2 = 0.2969∠131.0213°

Potencias aparentes de la línea 1-2:
S_1 = 0.19484939144149171 + 0.22398070430095807im
S_2 = -0.19283154169192018 - 0.21574939247965946im

Violación de flujo en la línea 1-2: 0.0

Tensiones de la línea 1-3:

Corrientes de la línea 1-3:
I_1 = 0.4568∠152.6739°
I_3 = 0.4568∠-27.3261°

Potencias aparentes de la línea 1-3:
S_1 = -0.40578411600673503 - 0.20967504145707316im
S_3 = 0.4100203398307045 + 0.2300229133738345im

Violación de flujo en la línea 1-3: 0.0

Tensiones de la línea 2-4:

Corrientes de la línea 2-4:
I_2 = 9.8532∠124.6181°
I_4 = 6.2181∠130.1912°

Potencias aparentes de la línea 2-4:
S_2 = -5.511220682590226 - 7.3963062932773616im
S_4 = -3.973009828984133 - 4.576958115106442im

Violación de flujo en la línea 2-4: 0.0

Pérdidas totales:
P_totales = -9.47797643800082
Q_totales = -11.944685224645744

Información de Generadores:
----------------------------

Generador 1:
Estado u: 0.4715
P inicial: 48.9104 MW
Q inicial: 50.4306 MVAr
Límites P: [0, 101] MW
Límites Q: [-49, 50] MVAr
P ajustada: 48.9104 MW
Q ajustada: 50.4306 MVAr
Estado: Encendido

Generador 2:
Estado u: 0.8776
P inicial: 97.1961 MW
Q inicial: 47.2522 MVAr
Límites P: [0, 100] MW
Límites Q: [-48, 50] MVAr
P ajustada: 97.1961 MW
Q ajustada: 47.2522 MVAr
Estado: Encendido

Generador 3:
Estado u: 0.9419
P inicial: 100.0 MW
Q inicial: 50.0 MVAr
Límites P: [0, 100] MW
Límites Q: [-50, 50] MVAr
P ajustada: 100.0 MW
Q ajustada: 50.0 MVAr
Estado: Encendido
fitValue: Inf

Mejor fitness actual: Inf
Iteraciones sin mejora: 34

=========== Iteración 35 ==============
Tiempo transcurrido: 0.35 segundos

Actualizando partícula 1
fitValue: Inf

Actualizando partícula 2
fitValue: Inf

Actualizando partícula 3
fitValue: Inf

Actualizando partícula 4
fitValue: Inf

Actualizando partícula 5
fitValue: Inf

Mejor fitness actual: Inf
Iteraciones sin mejora: 35

=========== Iteración 36 ==============
Tiempo transcurrido: 0.35 segundos

Actualizando partícula 1
fitValue: Inf

Actualizando partícula 2
fitValue: Inf

Actualizando partícula 3
fitValue: Inf

Actualizando partícula 4
fitValue: Inf

Actualizando partícula 5
fitValue: Inf

Mejor fitness actual: Inf
Iteraciones sin mejora: 36

=========== Iteración 37 ==============
Tiempo transcurrido: 0.35 segundos

Actualizando partícula 1
fitValue: Inf

Actualizando partícula 2
fitValue: Inf

Actualizando partícula 3
fitValue: Inf

Actualizando partícula 4
fitValue: Inf

Actualizando partícula 5
fitValue: Inf

Mejor fitness actual: Inf
Iteraciones sin mejora: 37

=========== Iteración 38 ==============
Tiempo transcurrido: 0.36 segundos

Actualizando partícula 1
fitValue: Inf

Actualizando partícula 2
fitValue: Inf

Actualizando partícula 3
fitValue: Inf

Actualizando partícula 4
fitValue: Inf

Actualizando partícula 5

Comprobación de potencias generadas y demandadas:
Pd: [0.7, 0.58, 0.59, 0.57]
Qd: [0.49, 0.3, 0.27, 0.36]
Pgen: [0.0, 0.9985510557742319, 1.0]
Qgen: [0.0, 0.4985800346587473, 0.5]

Potencias activas inyectadas reales:
Piny: [-0.7, 0.4185510557742319, 0.41000000000000003, -0.57]

Potencias reactivas inyectadas:
Qiny: [-0.49, 0.1985800346587473, 0.22999999999999998, -0.36]

====Iteración Newton-Raphson: 1 ====


Potencias inyectadas calculadas con las tensiones actuales:
U: ComplexF64[1.0 + 0.0im, 1.0 + 0.0im, 1.0 + 0.0im, 1.0 + 0.0im]
Piny_new: [0.0, -6.217248937900877e-15, -8.881784197001252e-16, -1.7763568394002505e-15]
Qiny_new: [0.0, -1.7763568394002505e-15, 0.0, 0.0]

Desbalances de potencias:
ΔPiny: [0.0, 0.4185510557742381, 0.4100000000000009, -0.5699999999999982]
ΔQiny: [0.0, 0.19858003465874907, 0.22999999999999998, -0.36]

Desbalances de ángulos y tensiones (vector columna):
Δθ: [-0.0104, 0.0353, -0.0312]
ΔV: [-0.0185, 0.0308, -0.0544]

Tensiones actualizadas (módulos y ángulos):

====Iteración Newton-Raphson: 2 ====


Potencias inyectadas calculadas con las tensiones actuales:
U: ComplexF64[1.0 + 0.0im, 0.9814030009195226 - 0.010254984477801045im, 1.0301151562541002 + 0.036397238211015495im, 0.945108816337388 - 0.029512428532548967im]
Piny_new: [0.0, 0.39643899177647685, 0.4238515140902081, -0.5322000748943309]
Qiny_new: [0.0, 0.2067064803215714, 0.24340672395143603, -0.340282870126883]

Desbalances de potencias:
ΔPiny: [0.0, 0.02211206399775506, -0.013851514090208072, -0.0377999251056691]
ΔQiny: [0.0, -0.008126445662824111, -0.01340672395143605, -0.019717129873116968]

Desbalances de ángulos y tensiones (vector columna):
Δθ: [-0.001, -0.001, -0.0028]
ΔV: [-0.0035, -0.0015, -0.006]

Tensiones actualizadas (módulos y ángulos):

====Iteración Newton-Raphson: 3 ====


Potencias inyectadas calculadas con las tensiones actuales:
U: ComplexF64[1.0 + 0.0im, 0.9779172812737285 - 0.011172559073990163im, 1.028690054221843 + 0.035319920167651085im, 0.9390099734244335 - 0.03194778676775982im]
Piny_new: [0.0, 0.41832430307258733, 0.4100196610807854, -0.569641488210025]
Qiny_new: [0.0, 0.19871055083953143, 0.2300235846927592, -0.3598857423643518]

Desbalances de potencias:
ΔPiny: [0.0, 0.0002267527016445725, -1.9661080785382534e-5, -0.0003585117899749246]
ΔQiny: [0.0, -0.00013051618078413485, -2.3584692759204273e-5, -0.00011425763564820723]

Desbalances de ángulos y tensiones (vector columna):
Δθ: [-0.0, -0.0, -0.0]
ΔV: [-0.0, -0.0, -0.0001]

Tensiones actualizadas (módulos y ángulos):

====Iteración Newton-Raphson: 4 ====


Potencias inyectadas calculadas con las tensiones actuales:
U: ComplexF64[1.0 + 0.0im, 0.9778863580122589 - 0.011180128768394727im, 1.0286875973030574 + 0.03531848145541825im, 0.9389582684544716 - 0.03197210628332877im]
Piny_new: [0.0, 0.41855103534480886, 0.41000000004693693, -0.5699999694395451]
Qiny_new: [0.0, 0.1985800485351592, 0.23000000006483512, -0.3599999947209365]

Desbalances de potencias:
ΔPiny: [0.0, 2.0429423042145345e-8, -4.693689881207774e-11, -3.056045483340597e-8]
ΔQiny: [0.0, -1.3876411908420039e-8, -6.483513725896728e-11, -5.2790634641475265e-9]

¡Convergencia alcanzada!

****Resultados finales****

1. Tensiones finales:
Nodo 1: V = 1.0∠0.0°
Nodo 2: V = 0.978∠-0.6532°
Nodo 3: V = 1.0293∠1.9652°
Nodo 4: V = 0.9395∠-1.9481°

2. Potencias generadas por el slack:
Pgen_slack: 0.4619096862412657 p.u.
Qgen_slack: 0.4760147509806598 p.u.

3. Pérdidas totales:
P_totales: 0.020460742015497746 p.u.
Q_totales: 0.584317569628134 p.u.

Violaciones de tensión: Inf

Tensiones de la línea 1-2:

Corrientes de la línea 1-2:
I_1 = 0.2576∠-49.4024°
I_2 = 0.2576∠130.5976°

Potencias aparentes de la línea 1-2:
S_1 = 0.1676636458884344 + 0.1956328222041055im
S_2 = -0.16614377763008303 - 0.18943290094414003im

Violación de flujo en la línea 1-2: 0.0

Tensiones de la línea 1-3:

Corrientes de la línea 1-3:
I_1 = 0.4568∠152.6739°
I_3 = 0.4568∠-27.3261°

Potencias aparentes de la línea 1-3:
S_1 = -0.40578411600673503 - 0.20967504145707316im
S_3 = 0.4100203398307045 + 0.2300229133738345im

Violación de flujo en la línea 1-3: 0.0

Tensiones de la línea 2-4:

Corrientes de la línea 2-4:
I_2 = 9.884∠124.7292°
I_4 = 6.2436∠130.3171°

Potencias aparentes de la línea 2-4:
S_2 = -5.54690774951883 - 7.4473680343238255im
S_4 = -4.003601715828989 - 4.610153202292737im

Violación de flujo en la línea 2-4: 0.0

Pérdidas totales:
P_totales = -9.544753373265499
Q_totales = -12.030973443439835

Información de Generadores:
----------------------------

Generador 1:
Estado u: 0.5892
P inicial: 46.191 MW
Q inicial: 47.6015 MVAr
Límites P: [0, 101] MW
Límites Q: [-49, 50] MVAr
P ajustada: 46.191 MW
Q ajustada: 47.6015 MVAr
Estado: Encendido

Generador 2:
Estado u: 0.8988
P inicial: 99.8551 MW
Q inicial: 49.858 MVAr
Límites P: [0, 100] MW
Límites Q: [-48, 50] MVAr
P ajustada: 99.8551 MW
Q ajustada: 49.858 MVAr
Estado: Encendido

Generador 3:
Estado u: 1.0
P inicial: 100.0 MW
Q inicial: 50.0 MVAr
Límites P: [0, 100] MW
Límites Q: [-50, 50] MVAr
P ajustada: 100.0 MW
Q ajustada: 50.0 MVAr
Estado: Encendido
fitValue: Inf

Mejor fitness actual: Inf
Iteraciones sin mejora: 38

=========== Iteración 39 ==============
Tiempo transcurrido: 0.39 segundos

Actualizando partícula 1
fitValue: Inf

Actualizando partícula 2
fitValue: Inf

Actualizando partícula 3
fitValue: Inf

Actualizando partícula 4
fitValue: Inf

Actualizando partícula 5

Comprobación de potencias generadas y demandadas:
Pd: [0.7, 0.58, 0.59, 0.57]
Qd: [0.49, 0.3, 0.27, 0.36]
Pgen: [0.0, 0.9828510919026253, 1.0]
Qgen: [0.0, 0.4831940700645728, 0.5]

Potencias activas inyectadas reales:
Piny: [-0.7, 0.40285109190262536, 0.41000000000000003, -0.57]

Potencias reactivas inyectadas:
Qiny: [-0.49, 0.18319407006457283, 0.22999999999999998, -0.36]

====Iteración Newton-Raphson: 1 ====


Potencias inyectadas calculadas con las tensiones actuales:
U: ComplexF64[1.0 + 0.0im, 1.0 + 0.0im, 1.0 + 0.0im, 1.0 + 0.0im]
Piny_new: [0.0, -6.217248937900877e-15, -8.881784197001252e-16, -1.7763568394002505e-15]
Qiny_new: [0.0, -1.7763568394002505e-15, 0.0, 0.0]

Desbalances de potencias:
ΔPiny: [0.0, 0.4028510919026316, 0.4100000000000009, -0.5699999999999982]
ΔQiny: [0.0, 0.1831940700645746, 0.22999999999999998, -0.36]

Desbalances de ángulos y tensiones (vector columna):
Δθ: [-0.0116, 0.0353, -0.0323]
ΔV: [-0.0203, 0.0308, -0.0562]

Tensiones actualizadas (módulos y ángulos):

====Iteración Newton-Raphson: 2 ====


Potencias inyectadas calculadas con las tensiones actuales:
U: ComplexF64[1.0 + 0.0im, 0.9795946470310057 - 0.011327532049659401im, 1.0301151562541002 + 0.036397238211015495im, 0.94327985003374 - 0.03050723308460351im]
Piny_new: [0.0, 0.3798339936205493, 0.4238515140902081, -0.5306847354299822]
Qiny_new: [0.0, 0.191646715917524, 0.24340672395143603, -0.33990745556744034]

Desbalances de potencias:
ΔPiny: [0.0, 0.023017098282076043, -0.013851514090208072, -0.03931526457001777]
ΔQiny: [0.0, -0.008452645852951163, -0.01340672395143605, -0.020092544432559645]

Desbalances de ángulos y tensiones (vector columna):
Δθ: [-0.001, -0.001, -0.0029]
ΔV: [-0.0036, -0.0015, -0.0062]

Tensiones actualizadas (módulos y ángulos):

====Iteración Newton-Raphson: 3 ====


Potencias inyectadas calculadas con las tensiones actuales:
U: ComplexF64[1.0 + 0.0im, 0.9759956050660198 - 0.012289102000685491im, 1.028690054221843 + 0.035319920167651085im, 0.9369808370326759 - 0.0330580052962326im]
Piny_new: [0.0, 0.40260676521353955, 0.4100196610807854, -0.5696138580045921]
Qiny_new: [0.0, 0.18333576739854499, 0.2300235846927592, -0.35987973867862666]

Desbalances de potencias:
ΔPiny: [0.0, 0.00024432668908580535, -1.9661080785382534e-5, -0.00038614199540787375]
ΔQiny: [0.0, -0.00014169733397215167, -2.3584692759204273e-5, -0.00012026132137332723]

Desbalances de ángulos y tensiones (vector columna):
Δθ: [-0.0, -0.0, -0.0]
ΔV: [-0.0, -0.0, -0.0001]

Tensiones actualizadas (módulos y ángulos):

====Iteración Newton-Raphson: 4 ====


Potencias inyectadas calculadas con las tensiones actuales:
U: ComplexF64[1.0 + 0.0im, 0.9759623086309638 - 0.012297284976203157im, 1.0286875973030574 + 0.03531848145541825im, 0.9369252421624591 - 0.033084319333175086im]
Piny_new: [0.0, 0.4028510681622442, 0.41000000004693693, -0.5699999644851828]
Qiny_new: [0.0, 0.1831940862975621, 0.23000000006483512, -0.3599999940356412]

Desbalances de potencias:
ΔPiny: [0.0, 2.3740381160930468e-8, -4.693689881207774e-11, -3.5514817198212256e-8]
ΔQiny: [0.0, -1.623298925834682e-8, -6.483513725896728e-11, -5.96435878463808e-9]

¡Convergencia alcanzada!

****Resultados finales****

1. Tensiones finales:
Nodo 1: V = 1.0∠0.0°
Nodo 2: V = 0.976∠-0.7219°
Nodo 3: V = 1.0293∠1.9652°
Nodo 4: V = 0.9375∠-2.0225°

2. Potencias generadas por el slack:
Pgen_slack: 0.4779570436837861 p.u.
Qgen_slack: 0.4926818782489606 p.u.

3. Pérdidas totales:
P_totales: 0.02080813558641159 p.u.
Q_totales: 0.5855987323022602 p.u.

Violaciones de tensión: Inf

Tensiones de la línea 1-2:

Corrientes de la línea 1-2:
I_1 = 0.2808∠-49.1295°
I_2 = 0.2808∠130.8705°

Potencias aparentes de la línea 1-2:
S_1 = 0.1837544596853804 + 0.21235301043154564im
S_2 = -0.18194894450285187 - 0.2049878642066411im

Violación de flujo en la línea 1-2: 0.0

Tensiones de la línea 1-3:

Corrientes de la línea 1-3:
I_1 = 0.4568∠152.6739°
I_3 = 0.4568∠-27.3261°

Potencias aparentes de la línea 1-3:
S_1 = -0.40578411600673503 - 0.20967504145707316im
S_3 = 0.4100203398307045 + 0.2300229133738345im

Violación de flujo en la línea 1-3: 0.0

Tensiones de la línea 2-4:

Corrientes de la línea 2-4:
I_2 = 9.8658∠124.6632°
I_4 = 6.2287∠130.2438°

Potencias aparentes de la línea 2-4:
S_2 = -5.525709397904358 - 7.4172930336578595im
S_4 = -3.9857149071111753 - 4.590555185541372im

Violación de flujo en la línea 2-4: 0.0

Pérdidas totales:
P_totales = -9.505382566009036
Q_totales = -11.980135201057566

Información de Generadores:
----------------------------

Generador 1:
Estado u: 0.5197
P inicial: 47.7957 MW
Q inicial: 49.2682 MVAr
Límites P: [0, 101] MW
Límites Q: [-49, 50] MVAr
P ajustada: 47.7957 MW
Q ajustada: 49.2682 MVAr
Estado: Encendido

Generador 2:
Estado u: 0.8863
P inicial: 98.2851 MW
Q inicial: 48.3194 MVAr
Límites P: [0, 100] MW
Límites Q: [-48, 50] MVAr
P ajustada: 98.2851 MW
Q ajustada: 48.3194 MVAr
Estado: Encendido

Generador 3:
Estado u: 0.9834
P inicial: 100.0 MW
Q inicial: 50.0 MVAr
Límites P: [0, 100] MW
Límites Q: [-50, 50] MVAr
P ajustada: 100.0 MW
Q ajustada: 50.0 MVAr
Estado: Encendido
fitValue: Inf

Mejor fitness actual: Inf
Iteraciones sin mejora: 39

=========== Iteración 40 ==============
Tiempo transcurrido: 0.44 segundos

Actualizando partícula 1
fitValue: Inf

Actualizando partícula 2
fitValue: Inf

Actualizando partícula 3
fitValue: Inf

Actualizando partícula 4
fitValue: Inf

Actualizando partícula 5
fitValue: Inf

Mejor fitness actual: Inf
Iteraciones sin mejora: 40

=========== Iteración 41 ==============
Tiempo transcurrido: 0.44 segundos

Actualizando partícula 1
fitValue: Inf

Actualizando partícula 2
fitValue: Inf

Actualizando partícula 3
fitValue: Inf

Actualizando partícula 4
fitValue: Inf

Actualizando partícula 5
fitValue: Inf

Mejor fitness actual: Inf
Iteraciones sin mejora: 41

=========== Iteración 42 ==============
Tiempo transcurrido: 0.45 segundos

Actualizando partícula 1
fitValue: Inf

Actualizando partícula 2
fitValue: Inf

Actualizando partícula 3
fitValue: Inf

Actualizando partícula 4
fitValue: Inf

Actualizando partícula 5

Comprobación de potencias generadas y demandadas:
Pd: [0.7, 0.58, 0.59, 0.57]
Qd: [0.49, 0.3, 0.27, 0.36]
Pgen: [0.0, 0.9894176269677197, 1.0]
Qgen: [0.0, 0.4896292744283653, 0.5]

Potencias activas inyectadas reales:
...